<?xml version="1.0" encoding="UTF-8"?>

<!-- generated on 2026-04-03T17:09:33.914552+05:30 by Eclipse SUMO netconvert 1.26.0
<netconvertConfiguration xmlns:xsi="http://www.w3.org/2001/XMLSchema-instance" xsi:noNamespaceSchemaLocation="http://sumo.dlr.de/xsd/netconvertConfiguration.xsd">

    <input>
        <node-files value="nodes.nod.xml"/>
        <edge-files value="edges.edg.xml"/>
    </input>

    <output>
        <output-file value="interchange.net.xml"/>
    </output>

    <pedestrian>
        <sidewalks.guess value="true"/>
        <crossings.guess value="true"/>
    </pedestrian>

</netconvertConfiguration>
-->

<net version="1.20" junctionCornerDetail="5" walkingareas="true" limitTurnSpeed="5.50" xmlns:xsi="http://www.w3.org/2001/XMLSchema-instance" xsi:noNamespaceSchemaLocation="http://sumo.dlr.de/xsd/net_file.xsd">

    <location netOffset="500.00,300.00" convBoundary="0.00,0.00,1000.00,600.00" origBoundary="-500.00,-300.00,500.00,300.00" projParameter="!"/>

    <edge id=":art1_north_0" function="internal">
        <lane id=":art1_north_0_0" index="0" speed="3.65" length="4.67" shape="351.60,600.00 350.80,601.20 350.00,601.60 349.20,601.20 348.40,600.00"/>
    </edge>
    <edge id=":art1_south_0" function="internal">
        <lane id=":art1_south_0_0" index="0" speed="3.65" length="4.67" shape="348.40,0.00 349.20,-1.20 350.00,-1.60 350.80,-1.20 351.60,0.00"/>
    </edge>
    <edge id=":art2_north_0" function="internal">
        <lane id=":art2_north_0_0" index="0" speed="3.65" length="4.67" shape="651.60,600.00 650.80,601.20 650.00,601.60 649.20,601.20 648.40,600.00"/>
    </edge>
    <edge id=":art2_south_0" function="internal">
        <lane id=":art2_south_0_0" index="0" speed="3.65" length="4.67" shape="648.40,0.00 649.20,-1.20 650.00,-1.60 650.80,-1.20 651.60,0.00"/>
    </edge>
    <edge id=":hw_east_0" function="internal">
        <lane id=":hw_east_0_0" index="0" speed="3.65" length="4.67" shape="1000.00,298.40 1001.20,299.20 1001.60,300.00 1001.20,300.80 1000.00,301.60"/>
    </edge>
    <edge id=":hw_east_w0" function="walkingarea">
        <lane id=":hw_east_w0_0" index="0" allow="pedestrian" speed="2.78" length="9.60" width="12.80" shape="1000.00,300.00 1000.00,306.40 1000.00,293.60 1000.00,300.00"/>
    </edge>
    <edge id=":hw_west_0" function="internal">
        <lane id=":hw_west_0_0" index="0" speed="3.65" length="4.67" shape="0.00,301.60 -1.20,300.80 -1.60,300.00 -1.20,299.20 0.00,298.40"/>
    </edge>
    <edge id=":hw_west_w0" function="walkingarea">
        <lane id=":hw_west_w0_0" index="0" allow="pedestrian" speed="2.78" length="9.60" width="12.80" shape="0.00,300.00 0.00,293.60 0.00,306.40 0.00,300.00"/>
    </edge>
    <edge id=":int_left_0" function="internal">
        <lane id=":int_left_0_0" index="0" speed="6.51" length="9.03" shape="348.40,310.40 348.05,307.95 347.00,306.20 345.25,305.15 342.80,304.80"/>
    </edge>
    <edge id=":int_left_1" function="internal">
        <lane id=":int_left_1_0" index="0" speed="15.00" length="20.80" shape="348.40,310.40 348.40,289.60"/>
    </edge>
    <edge id=":int_left_2" function="internal">
        <lane id=":int_left_2_0" index="0" speed="8.67" length="5.56" shape="348.40,310.40 348.95,305.15 349.06,304.89"/>
    </edge>
    <edge id=":int_left_3" function="internal">
        <lane id=":int_left_3_0" index="0" speed="3.65" length="1.44" shape="348.40,310.40 349.20,309.20"/>
    </edge>
    <edge id=":int_left_18" function="internal">
        <lane id=":int_left_18_0" index="0" speed="8.67" length="11.29" shape="349.06,304.89 350.60,301.40 353.35,299.15 357.20,298.40"/>
    </edge>
    <edge id=":int_left_19" function="internal">
        <lane id=":int_left_19_0" index="0" speed="3.65" length="3.23" shape="349.20,309.20 350.00,308.80 350.80,309.20 351.60,310.40"/>
    </edge>
    <edge id=":int_left_4" function="internal">
        <lane id=":int_left_4_0" index="0" speed="6.51" length="9.03" shape="357.20,304.80 354.75,305.15 353.00,306.20 351.95,307.95 351.60,310.40"/>
    </edge>
    <edge id=":int_left_5" function="internal">
        <lane id=":int_left_5_0" index="0" speed="30.00" length="14.40" shape="357.20,304.80 342.80,304.80"/>
        <lane id=":int_left_5_1" index="1" speed="30.00" length="14.40" shape="357.20,301.60 342.80,301.60"/>
    </edge>
    <edge id=":int_left_7" function="internal">
        <lane id=":int_left_7_0" index="0" speed="8.67" length="3.71" shape="357.20,301.60 353.56,300.89"/>
    </edge>
    <edge id=":int_left_8" function="internal">
        <lane id=":int_left_8_0" index="0" speed="3.65" length="1.44" shape="357.20,301.60 356.00,300.80"/>
    </edge>
    <edge id=":int_left_20" function="internal">
        <lane id=":int_left_20_0" index="0" speed="8.67" length="13.14" shape="353.56,300.89 353.35,300.85 350.60,298.60 348.95,294.85 348.40,289.60"/>
    </edge>
    <edge id=":int_left_21" function="internal">
        <lane id=":int_left_21_0" index="0" speed="3.65" length="3.23" shape="356.00,300.80 355.60,300.00 356.00,299.20 357.20,298.40"/>
    </edge>
    <edge id=":int_left_9" function="internal">
        <lane id=":int_left_9_0" index="0" speed="6.51" length="9.03" shape="351.60,289.60 351.95,292.05 353.00,293.80 354.75,294.85 357.20,295.20"/>
    </edge>
    <edge id=":int_left_10" function="internal">
        <lane id=":int_left_10_0" index="0" speed="15.00" length="20.80" shape="351.60,289.60 351.60,310.40"/>
    </edge>
    <edge id=":int_left_11" function="internal">
        <lane id=":int_left_11_0" index="0" speed="8.67" length="5.56" shape="351.60,289.60 351.05,294.85 350.94,295.11"/>
    </edge>
    <edge id=":int_left_12" function="internal">
        <lane id=":int_left_12_0" index="0" speed="3.65" length="1.44" shape="351.60,289.60 350.80,290.80"/>
    </edge>
    <edge id=":int_left_22" function="internal">
        <lane id=":int_left_22_0" index="0" speed="8.67" length="11.29" shape="350.94,295.11 349.40,298.60 346.65,300.85 342.80,301.60"/>
    </edge>
    <edge id=":int_left_23" function="internal">
        <lane id=":int_left_23_0" index="0" speed="3.65" length="3.23" shape="350.80,290.80 350.00,291.20 349.20,290.80 348.40,289.60"/>
    </edge>
    <edge id=":int_left_13" function="internal">
        <lane id=":int_left_13_0" index="0" speed="6.51" length="9.03" shape="342.80,295.20 345.25,294.85 347.00,293.80 348.05,292.05 348.40,289.60"/>
    </edge>
    <edge id=":int_left_14" function="internal">
        <lane id=":int_left_14_0" index="0" speed="30.00" length="14.40" shape="342.80,295.20 357.20,295.20"/>
        <lane id=":int_left_14_1" index="1" speed="30.00" length="14.40" shape="342.80,298.40 357.20,298.40"/>
    </edge>
    <edge id=":int_left_16" function="internal">
        <lane id=":int_left_16_0" index="0" speed="8.67" length="3.71" shape="342.80,298.40 346.44,299.11"/>
    </edge>
    <edge id=":int_left_17" function="internal">
        <lane id=":int_left_17_0" index="0" speed="3.65" length="1.44" shape="342.80,298.40 344.00,299.20"/>
    </edge>
    <edge id=":int_left_24" function="internal">
        <lane id=":int_left_24_0" index="0" speed="8.67" length="13.14" shape="346.44,299.11 346.65,299.15 349.40,301.40 351.05,305.15 351.60,310.40"/>
    </edge>
    <edge id=":int_left_25" function="internal">
        <lane id=":int_left_25_0" index="0" speed="3.65" length="3.23" shape="344.00,299.20 344.40,300.00 344.00,300.80 342.80,301.60"/>
    </edge>
    <edge id=":int_left_w0" function="walkingarea">
        <lane id=":int_left_w0_0" index="0" allow="pedestrian" speed="2.78" length="13.61" width="12.80" shape="346.80,310.40 353.20,310.40 353.64,308.18 354.20,307.40 354.98,306.84 355.98,306.51 357.20,306.40 357.20,293.60 354.98,293.16 354.20,292.60 353.64,291.82 353.31,290.82 353.20,289.60 346.80,289.60 346.36,291.82 345.80,292.60 345.02,293.16 344.02,293.49 342.80,293.60 342.80,306.40 345.02,306.84 345.80,307.40 346.36,308.18 346.69,309.18"/>
    </edge>
    <edge id=":int_right_0" function="internal">
        <lane id=":int_right_0_0" index="0" speed="6.51" length="9.03" shape="648.40,310.40 648.05,307.95 647.00,306.20 645.25,305.15 642.80,304.80"/>
    </edge>
    <edge id=":int_right_1" function="internal">
        <lane id=":int_right_1_0" index="0" speed="15.00" length="20.80" shape="648.40,310.40 648.40,289.60"/>
    </edge>
    <edge id=":int_right_2" function="internal">
        <lane id=":int_right_2_0" index="0" speed="8.67" length="5.56" shape="648.40,310.40 648.95,305.15 649.06,304.89"/>
    </edge>
    <edge id=":int_right_3" function="internal">
        <lane id=":int_right_3_0" index="0" speed="3.65" length="1.44" shape="648.40,310.40 649.20,309.20"/>
    </edge>
    <edge id=":int_right_18" function="internal">
        <lane id=":int_right_18_0" index="0" speed="8.67" length="11.29" shape="649.06,304.89 650.60,301.40 653.35,299.15 657.20,298.40"/>
    </edge>
    <edge id=":int_right_19" function="internal">
        <lane id=":int_right_19_0" index="0" speed="3.65" length="3.23" shape="649.20,309.20 650.00,308.80 650.80,309.20 651.60,310.40"/>
    </edge>
    <edge id=":int_right_4" function="internal">
        <lane id=":int_right_4_0" index="0" speed="6.51" length="9.03" shape="657.20,304.80 654.75,305.15 653.00,306.20 651.95,307.95 651.60,310.40"/>
    </edge>
    <edge id=":int_right_5" function="internal">
        <lane id=":int_right_5_0" index="0" speed="30.00" length="14.40" shape="657.20,304.80 642.80,304.80"/>
        <lane id=":int_right_5_1" index="1" speed="30.00" length="14.40" shape="657.20,301.60 642.80,301.60"/>
    </edge>
    <edge id=":int_right_7" function="internal">
        <lane id=":int_right_7_0" index="0" speed="8.67" length="3.71" shape="657.20,301.60 653.56,300.89"/>
    </edge>
    <edge id=":int_right_8" function="internal">
        <lane id=":int_right_8_0" index="0" speed="3.65" length="1.44" shape="657.20,301.60 656.00,300.80"/>
    </edge>
    <edge id=":int_right_20" function="internal">
        <lane id=":int_right_20_0" index="0" speed="8.67" length="13.14" shape="653.56,300.89 653.35,300.85 650.60,298.60 648.95,294.85 648.40,289.60"/>
    </edge>
    <edge id=":int_right_21" function="internal">
        <lane id=":int_right_21_0" index="0" speed="3.65" length="3.23" shape="656.00,300.80 655.60,300.00 656.00,299.20 657.20,298.40"/>
    </edge>
    <edge id=":int_right_9" function="internal">
        <lane id=":int_right_9_0" index="0" speed="6.51" length="9.03" shape="651.60,289.60 651.95,292.05 653.00,293.80 654.75,294.85 657.20,295.20"/>
    </edge>
    <edge id=":int_right_10" function="internal">
        <lane id=":int_right_10_0" index="0" speed="15.00" length="20.80" shape="651.60,289.60 651.60,310.40"/>
    </edge>
    <edge id=":int_right_11" function="internal">
        <lane id=":int_right_11_0" index="0" speed="8.67" length="5.56" shape="651.60,289.60 651.05,294.85 650.94,295.11"/>
    </edge>
    <edge id=":int_right_12" function="internal">
        <lane id=":int_right_12_0" index="0" speed="3.65" length="1.44" shape="651.60,289.60 650.80,290.80"/>
    </edge>
    <edge id=":int_right_22" function="internal">
        <lane id=":int_right_22_0" index="0" speed="8.67" length="11.29" shape="650.94,295.11 649.40,298.60 646.65,300.85 642.80,301.60"/>
    </edge>
    <edge id=":int_right_23" function="internal">
        <lane id=":int_right_23_0" index="0" speed="3.65" length="3.23" shape="650.80,290.80 650.00,291.20 649.20,290.80 648.40,289.60"/>
    </edge>
    <edge id=":int_right_13" function="internal">
        <lane id=":int_right_13_0" index="0" speed="6.51" length="9.03" shape="642.80,295.20 645.25,294.85 647.00,293.80 648.05,292.05 648.40,289.60"/>
    </edge>
    <edge id=":int_right_14" function="internal">
        <lane id=":int_right_14_0" index="0" speed="30.00" length="14.40" shape="642.80,295.20 657.20,295.20"/>
        <lane id=":int_right_14_1" index="1" speed="30.00" length="14.40" shape="642.80,298.40 657.20,298.40"/>
    </edge>
    <edge id=":int_right_16" function="internal">
        <lane id=":int_right_16_0" index="0" speed="8.67" length="3.71" shape="642.80,298.40 646.44,299.11"/>
    </edge>
    <edge id=":int_right_17" function="internal">
        <lane id=":int_right_17_0" index="0" speed="3.65" length="1.44" shape="642.80,298.40 644.00,299.20"/>
    </edge>
    <edge id=":int_right_24" function="internal">
        <lane id=":int_right_24_0" index="0" speed="8.67" length="13.14" shape="646.44,299.11 646.65,299.15 649.40,301.40 651.05,305.15 651.60,310.40"/>
    </edge>
    <edge id=":int_right_25" function="internal">
        <lane id=":int_right_25_0" index="0" speed="3.65" length="3.23" shape="644.00,299.20 644.40,300.00 644.00,300.80 642.80,301.60"/>
    </edge>
    <edge id=":int_right_w0" function="walkingarea">
        <lane id=":int_right_w0_0" index="0" allow="pedestrian" speed="2.78" length="13.61" width="12.80" shape="646.80,310.40 653.20,310.40 653.64,308.18 654.20,307.40 654.98,306.84 655.98,306.51 657.20,306.40 657.20,293.60 654.98,293.16 654.20,292.60 653.64,291.82 653.31,290.82 653.20,289.60 646.80,289.60 646.36,291.82 645.80,292.60 645.02,293.16 644.02,293.49 642.80,293.60 642.80,306.40 645.02,306.84 645.80,307.40 646.36,308.18 646.69,309.18"/>
    </edge>
    <edge id=":ped_art1_n_0" function="internal">
        <lane id=":ped_art1_n_0_0" index="0" speed="15.00" length="0.10" shape="348.40,450.00 348.40,450.00"/>
    </edge>
    <edge id=":ped_art1_n_1" function="internal">
        <lane id=":ped_art1_n_1_0" index="0" speed="15.00" length="0.10" shape="351.60,450.00 351.60,450.00"/>
    </edge>
    <edge id=":ped_art1_n_w0" function="walkingarea">
        <lane id=":ped_art1_n_w0_0" index="0" allow="pedestrian" speed="2.78" length="3.20" width="6.40" shape="346.80,450.00 353.20,450.00 346.80,450.00"/>
    </edge>
    <edge id=":ped_art1_s_0" function="internal">
        <lane id=":ped_art1_s_0_0" index="0" speed="15.00" length="0.10" shape="348.40,150.00 348.40,150.00"/>
    </edge>
    <edge id=":ped_art1_s_1" function="internal">
        <lane id=":ped_art1_s_1_0" index="0" speed="15.00" length="0.10" shape="351.60,150.00 351.60,150.00"/>
    </edge>
    <edge id=":ped_art1_s_w0" function="walkingarea">
        <lane id=":ped_art1_s_w0_0" index="0" allow="pedestrian" speed="2.78" length="3.20" width="6.40" shape="346.80,150.00 353.20,150.00 346.80,150.00"/>
    </edge>
    <edge id=":ped_art2_n_0" function="internal">
        <lane id=":ped_art2_n_0_0" index="0" speed="15.00" length="0.10" shape="648.40,450.00 648.40,450.00"/>
    </edge>
    <edge id=":ped_art2_n_1" function="internal">
        <lane id=":ped_art2_n_1_0" index="0" speed="15.00" length="0.10" shape="651.60,450.00 651.60,450.00"/>
    </edge>
    <edge id=":ped_art2_n_w0" function="walkingarea">
        <lane id=":ped_art2_n_w0_0" index="0" allow="pedestrian" speed="2.78" length="3.20" width="6.40" shape="646.80,450.00 653.20,450.00 646.80,450.00"/>
    </edge>
    <edge id=":ped_art2_s_0" function="internal">
        <lane id=":ped_art2_s_0_0" index="0" speed="15.00" length="0.10" shape="648.40,150.00 648.40,150.00"/>
    </edge>
    <edge id=":ped_art2_s_1" function="internal">
        <lane id=":ped_art2_s_1_0" index="0" speed="15.00" length="0.10" shape="651.60,150.00 651.60,150.00"/>
    </edge>
    <edge id=":ped_art2_s_w0" function="walkingarea">
        <lane id=":ped_art2_s_w0_0" index="0" allow="pedestrian" speed="2.78" length="3.20" width="6.40" shape="646.80,150.00 653.20,150.00 646.80,150.00"/>
    </edge>

    <edge id="art1_n2ped1n" from="art1_north" to="ped_art1_n" priority="-1">
        <lane id="art1_n2ped1n_0" index="0" speed="15.00" length="150.00" shape="348.40,600.00 348.40,450.00"/>
    </edge>
    <edge id="art1_s2ped1s" from="art1_south" to="ped_art1_s" priority="-1">
        <lane id="art1_s2ped1s_0" index="0" speed="15.00" length="150.00" shape="351.60,0.00 351.60,150.00"/>
    </edge>
    <edge id="art2_n2ped2n" from="art2_north" to="ped_art2_n" priority="-1">
        <lane id="art2_n2ped2n_0" index="0" speed="15.00" length="150.00" shape="648.40,600.00 648.40,450.00"/>
    </edge>
    <edge id="art2_s2ped2s" from="art2_south" to="ped_art2_s" priority="-1">
        <lane id="art2_s2ped2s_0" index="0" speed="15.00" length="150.00" shape="651.60,0.00 651.60,150.00"/>
    </edge>
    <edge id="hw_e2ir" from="hw_east" to="int_right" priority="-1">
        <lane id="hw_e2ir_0" index="0" speed="30.00" length="342.80" shape="1000.00,304.80 657.20,304.80"/>
        <lane id="hw_e2ir_1" index="1" speed="30.00" length="342.80" shape="1000.00,301.60 657.20,301.60"/>
    </edge>
    <edge id="hw_il2ir" from="int_left" to="int_right" priority="-1">
        <lane id="hw_il2ir_0" index="0" speed="30.00" length="285.60" shape="357.20,295.20 642.80,295.20"/>
        <lane id="hw_il2ir_1" index="1" speed="30.00" length="285.60" shape="357.20,298.40 642.80,298.40"/>
    </edge>
    <edge id="hw_il2w" from="int_left" to="hw_west" priority="-1">
        <lane id="hw_il2w_0" index="0" speed="30.00" length="342.80" shape="342.80,304.80 0.00,304.80"/>
        <lane id="hw_il2w_1" index="1" speed="30.00" length="342.80" shape="342.80,301.60 0.00,301.60"/>
    </edge>
    <edge id="hw_ir2e" from="int_right" to="hw_east" priority="-1">
        <lane id="hw_ir2e_0" index="0" speed="30.00" length="342.80" shape="657.20,295.20 1000.00,295.20"/>
        <lane id="hw_ir2e_1" index="1" speed="30.00" length="342.80" shape="657.20,298.40 1000.00,298.40"/>
    </edge>
    <edge id="hw_ir2il" from="int_right" to="int_left" priority="-1">
        <lane id="hw_ir2il_0" index="0" speed="30.00" length="285.60" shape="642.80,304.80 357.20,304.80"/>
        <lane id="hw_ir2il_1" index="1" speed="30.00" length="285.60" shape="642.80,301.60 357.20,301.60"/>
    </edge>
    <edge id="hw_w2il" from="hw_west" to="int_left" priority="-1">
        <lane id="hw_w2il_0" index="0" speed="30.00" length="342.80" shape="0.00,295.20 342.80,295.20"/>
        <lane id="hw_w2il_1" index="1" speed="30.00" length="342.80" shape="0.00,298.40 342.80,298.40"/>
    </edge>
    <edge id="il2ped1n" from="int_left" to="ped_art1_n" priority="-1">
        <lane id="il2ped1n_0" index="0" speed="15.00" length="139.60" shape="351.60,310.40 351.60,450.00"/>
    </edge>
    <edge id="il2ped1s" from="int_left" to="ped_art1_s" priority="-1">
        <lane id="il2ped1s_0" index="0" speed="15.00" length="139.60" shape="348.40,289.60 348.40,150.00"/>
    </edge>
    <edge id="ir2ped2n" from="int_right" to="ped_art2_n" priority="-1">
        <lane id="ir2ped2n_0" index="0" speed="15.00" length="139.60" shape="651.60,310.40 651.60,450.00"/>
    </edge>
    <edge id="ir2ped2s" from="int_right" to="ped_art2_s" priority="-1">
        <lane id="ir2ped2s_0" index="0" speed="15.00" length="139.60" shape="648.40,289.60 648.40,150.00"/>
    </edge>
    <edge id="ped1n2art1_n" from="ped_art1_n" to="art1_north" priority="-1">
        <lane id="ped1n2art1_n_0" index="0" speed="15.00" length="150.00" shape="351.60,450.00 351.60,600.00"/>
    </edge>
    <edge id="ped1n2il" from="ped_art1_n" to="int_left" priority="-1">
        <lane id="ped1n2il_0" index="0" speed="15.00" length="139.60" shape="348.40,450.00 348.40,310.40"/>
    </edge>
    <edge id="ped1s2art1_s" from="ped_art1_s" to="art1_south" priority="-1">
        <lane id="ped1s2art1_s_0" index="0" speed="15.00" length="150.00" shape="348.40,150.00 348.40,0.00"/>
    </edge>
    <edge id="ped1s2il" from="ped_art1_s" to="int_left" priority="-1">
        <lane id="ped1s2il_0" index="0" speed="15.00" length="139.60" shape="351.60,150.00 351.60,289.60"/>
    </edge>
    <edge id="ped2n2art2_n" from="ped_art2_n" to="art2_north" priority="-1">
        <lane id="ped2n2art2_n_0" index="0" speed="15.00" length="150.00" shape="651.60,450.00 651.60,600.00"/>
    </edge>
    <edge id="ped2n2ir" from="ped_art2_n" to="int_right" priority="-1">
        <lane id="ped2n2ir_0" index="0" speed="15.00" length="139.60" shape="648.40,450.00 648.40,310.40"/>
    </edge>
    <edge id="ped2s2art2_s" from="ped_art2_s" to="art2_south" priority="-1">
        <lane id="ped2s2art2_s_0" index="0" speed="15.00" length="150.00" shape="648.40,150.00 648.40,0.00"/>
    </edge>
    <edge id="ped2s2ir" from="ped_art2_s" to="int_right" priority="-1">
        <lane id="ped2s2ir_0" index="0" speed="15.00" length="139.60" shape="651.60,150.00 651.60,289.60"/>
    </edge>

    <tlLogic id="int_left" type="static" programID="0" offset="0">
        <phase duration="39" state="rrrrGGGggrrrrGGGgg"/>
        <phase duration="6"  state="rrrryyyyyrrrryyyyy"/>
        <phase duration="39" state="GGggrrrrrGGggrrrrr"/>
        <phase duration="6"  state="yyyyrrrrryyyyrrrrr"/>
    </tlLogic>
    <tlLogic id="int_right" type="static" programID="0" offset="0">
        <phase duration="39" state="rrrrGGGggrrrrGGGgg"/>
        <phase duration="6"  state="rrrryyyyyrrrryyyyy"/>
        <phase duration="39" state="GGggrrrrrGGggrrrrr"/>
        <phase duration="6"  state="yyyyrrrrryyyyrrrrr"/>
    </tlLogic>
    <tlLogic id="ped_art1_n" type="static" programID="0" offset="0">
        <phase duration="82" state="GG"/>
        <phase duration="3"  state="yy"/>
        <phase duration="5"  state="rr"/>
    </tlLogic>
    <tlLogic id="ped_art1_s" type="static" programID="0" offset="0">
        <phase duration="82" state="GG"/>
        <phase duration="3"  state="yy"/>
        <phase duration="5"  state="rr"/>
    </tlLogic>
    <tlLogic id="ped_art2_n" type="static" programID="0" offset="0">
        <phase duration="82" state="GG"/>
        <phase duration="3"  state="yy"/>
        <phase duration="5"  state="rr"/>
    </tlLogic>
    <tlLogic id="ped_art2_s" type="static" programID="0" offset="0">
        <phase duration="82" state="GG"/>
        <phase duration="3"  state="yy"/>
        <phase duration="5"  state="rr"/>
    </tlLogic>

    <junction id="art1_north" type="priority" x="350.00" y="600.00" incLanes="ped1n2art1_n_0" intLanes=":art1_north_0_0" shape="350.00,600.00 353.20,600.00 350.00,600.00">
        <request index="0" response="0" foes="0" cont="0"/>
    </junction>
    <junction id="art1_south" type="priority" x="350.00" y="0.00" incLanes="ped1s2art1_s_0" intLanes=":art1_south_0_0" shape="350.00,0.00 346.80,0.00 350.00,0.00">
        <request index="0" response="0" foes="0" cont="0"/>
    </junction>
    <junction id="art2_north" type="priority" x="650.00" y="600.00" incLanes="ped2n2art2_n_0" intLanes=":art2_north_0_0" shape="650.00,600.00 653.20,600.00 650.00,600.00">
        <request index="0" response="0" foes="0" cont="0"/>
    </junction>
    <junction id="art2_south" type="priority" x="650.00" y="0.00" incLanes="ped2s2art2_s_0" intLanes=":art2_south_0_0" shape="650.00,0.00 646.80,0.00 650.00,0.00">
        <request index="0" response="0" foes="0" cont="0"/>
    </junction>
    <junction id="hw_east" type="priority" x="1000.00" y="300.00" incLanes="hw_ir2e_0 hw_ir2e_1" intLanes=":hw_east_0_0" shape="1000.00,300.00 1000.00,293.60 1000.00,300.00">
        <request index="0" response="0" foes="0" cont="0"/>
    </junction>
    <junction id="hw_west" type="priority" x="0.00" y="300.00" incLanes="hw_il2w_0 hw_il2w_1" intLanes=":hw_west_0_0" shape="0.00,300.00 0.00,306.40 0.00,300.00">
        <request index="0" response="0" foes="0" cont="0"/>
    </junction>
    <junction id="int_left" type="traffic_light" x="350.00" y="300.00" incLanes="ped1n2il_0 hw_ir2il_0 hw_ir2il_1 ped1s2il_0 hw_w2il_0 hw_w2il_1" intLanes=":int_left_0_0 :int_left_1_0 :int_left_18_0 :int_left_19_0 :int_left_4_0 :int_left_5_0 :int_left_5_1 :int_left_20_0 :int_left_21_0 :int_left_9_0 :int_left_10_0 :int_left_22_0 :int_left_23_0 :int_left_13_0 :int_left_14_0 :int_left_14_1 :int_left_24_0 :int_left_25_0" shape="346.80,310.40 353.20,310.40 353.64,308.18 354.20,307.40 354.98,306.84 355.98,306.51 357.20,306.40 357.20,293.60 354.98,293.16 354.20,292.60 353.64,291.82 353.31,290.82 353.20,289.60 346.80,289.60 346.36,291.82 345.80,292.60 345.02,293.16 344.02,293.49 342.80,293.60 342.80,306.40 345.02,306.84 345.80,307.40 346.36,308.18 346.69,309.18">
        <request index="0"  response="000000000001100000" foes="000000000001100000" cont="0"/>
        <request index="1"  response="011110000011100000" foes="011111100011100000" cont="0"/>
        <request index="2"  response="011100010011100000" foes="011100010111100000" cont="1"/>
        <request index="3"  response="010000010000010000" foes="010000010000010000" cont="1"/>
        <request index="4"  response="000000000000000000" foes="010000010000001000" cont="0"/>
        <request index="5"  response="000000000000000100" foes="110000110000000111" cont="0"/>
        <request index="6"  response="000000100000000100" foes="110000110000000111" cont="0"/>
        <request index="7"  response="001110100000000100" foes="001111110000000110" cont="1"/>
        <request index="8"  response="001100000000000100" foes="001100000000000100" cont="1"/>
        <request index="9"  response="001100000000000000" foes="001100000000000000" cont="0"/>
        <request index="10" response="011100000011110000" foes="011100000011111100" cont="0"/>
        <request index="11" response="011100000011100010" foes="111100000011100010" cont="1"/>
        <request index="12" response="000010000010000010" foes="000010000010000010" cont="1"/>
        <request index="13" response="000000000000000000" foes="000001000010000010" cont="0"/>
        <request index="14" response="000000100000000000" foes="000000111110000110" cont="0"/>
        <request index="15" response="000000100000000100" foes="000000111110000110" cont="0"/>
        <request index="16" response="000000100001110100" foes="000000110001111110" cont="1"/>
        <request index="17" response="000000100001100000" foes="000000100001100000" cont="1"/>
    </junction>
    <junction id="int_right" type="traffic_light" x="650.00" y="300.00" incLanes="ped2n2ir_0 hw_e2ir_0 hw_e2ir_1 ped2s2ir_0 hw_il2ir_0 hw_il2ir_1" intLanes=":int_right_0_0 :int_right_1_0 :int_right_18_0 :int_right_19_0 :int_right_4_0 :int_right_5_0 :int_right_5_1 :int_right_20_0 :int_right_21_0 :int_right_9_0 :int_right_10_0 :int_right_22_0 :int_right_23_0 :int_right_13_0 :int_right_14_0 :int_right_14_1 :int_right_24_0 :int_right_25_0" shape="646.80,310.40 653.20,310.40 653.64,308.18 654.20,307.40 654.98,306.84 655.98,306.51 657.20,306.40 657.20,293.60 654.98,293.16 654.20,292.60 653.64,291.82 653.31,290.82 653.20,289.60 646.80,289.60 646.36,291.82 645.80,292.60 645.02,293.16 644.02,293.49 642.80,293.60 642.80,306.40 645.02,306.84 645.80,307.40 646.36,308.18 646.69,309.18">
        <request index="0"  response="000000000001100000" foes="000000000001100000" cont="0"/>
        <request index="1"  response="011110000011100000" foes="011111100011100000" cont="0"/>
        <request index="2"  response="011100010011100000" foes="011100010111100000" cont="1"/>
        <request index="3"  response="010000010000010000" foes="010000010000010000" cont="1"/>
        <request index="4"  response="000000000000000000" foes="010000010000001000" cont="0"/>
        <request index="5"  response="000000000000000100" foes="110000110000000111" cont="0"/>
        <request index="6"  response="000000100000000100" foes="110000110000000111" cont="0"/>
        <request index="7"  response="001110100000000100" foes="001111110000000110" cont="1"/>
        <request index="8"  response="001100000000000100" foes="001100000000000100" cont="1"/>
        <request index="9"  response="001100000000000000" foes="001100000000000000" cont="0"/>
        <request index="10" response="011100000011110000" foes="011100000011111100" cont="0"/>
        <request index="11" response="011100000011100010" foes="111100000011100010" cont="1"/>
        <request index="12" response="000010000010000010" foes="000010000010000010" cont="1"/>
        <request index="13" response="000000000000000000" foes="000001000010000010" cont="0"/>
        <request index="14" response="000000100000000000" foes="000000111110000110" cont="0"/>
        <request index="15" response="000000100000000100" foes="000000111110000110" cont="0"/>
        <request index="16" response="000000100001110100" foes="000000110001111110" cont="1"/>
        <request index="17" response="000000100001100000" foes="000000100001100000" cont="1"/>
    </junction>
    <junction id="ped_art1_n" type="traffic_light" x="350.00" y="450.00" incLanes="art1_n2ped1n_0 il2ped1n_0" intLanes=":ped_art1_n_0_0 :ped_art1_n_1_0" shape="346.80,450.00 353.20,450.00 346.80,450.00">
        <request index="0" response="00" foes="00" cont="0"/>
        <request index="1" response="00" foes="00" cont="0"/>
    </junction>
    <junction id="ped_art1_s" type="traffic_light" x="350.00" y="150.00" incLanes="il2ped1s_0 art1_s2ped1s_0" intLanes=":ped_art1_s_0_0 :ped_art1_s_1_0" shape="346.80,150.00 353.20,150.00 346.80,150.00">
        <request index="0" response="00" foes="00" cont="0"/>
        <request index="1" response="00" foes="00" cont="0"/>
    </junction>
    <junction id="ped_art2_n" type="traffic_light" x="650.00" y="450.00" incLanes="art2_n2ped2n_0 ir2ped2n_0" intLanes=":ped_art2_n_0_0 :ped_art2_n_1_0" shape="646.80,450.00 653.20,450.00 646.80,450.00">
        <request index="0" response="00" foes="00" cont="0"/>
        <request index="1" response="00" foes="00" cont="0"/>
    </junction>
    <junction id="ped_art2_s" type="traffic_light" x="650.00" y="150.00" incLanes="ir2ped2s_0 art2_s2ped2s_0" intLanes=":ped_art2_s_0_0 :ped_art2_s_1_0" shape="646.80,150.00 653.20,150.00 646.80,150.00">
        <request index="0" response="00" foes="00" cont="0"/>
        <request index="1" response="00" foes="00" cont="0"/>
    </junction>
